mainboard
R4 0 23 100k
D3 19 2 DI_1N4001
R3 0 24 100k
R6 23 5 100
D2 20 2 DI_1N4001
R5 24 4 100

*SRC=1N4001;DI_1N4001;Diodes;Si;  50.0V  1.00A  3.00us   Diodes, Inc. diode
.MODEL DI_1N4001 D  ( IS=76.9p RS=42.0m BV=50.0 IBV=5.00u CJO=39.8p  M=0.333 N=1.45 TT=4.32u )

.TRAN 1ms 100ms
* .AC DEC 100 100 1MEG
.END
